2023_SupMaterial/2023_LineConstants/LineConstantsCode.DSS
!--- OpenDSS Linecodes file generated from Show LINECONSTANTS command
!--- Frequency = 60 Hz, Earth resistivity = 100 ohm-m
!--- Earth Model = Carson

New Linecode.cab102 nphases=3  Units=km
~ Rmatrix=[1.70286  |0.150016  1.69726  |0.145503  0.14288  1.68871  ]
~ Xmatrix=[0.879428  |0.444715  0.883811  |0.395976  0.450323  0.890566  ]
~ Cmatrix=[7.98528  |-2.08583  8.31718  |-1.15763  -2.17336  7.79733  ]

New Linecode.cab103 nphases=3  Units=km
~ Rmatrix=[1.12716  |0.150016  1.12156  |0.145503  0.14288  1.11301  ]
~ Xmatrix=[0.861828  |0.444715  0.866212  |0.395976  0.450323  0.872967  ]
~ Cmatrix=[8.28547  |-2.22356  8.65671  |-1.21686  -2.31594  8.08623  ]

New Linecode.cab104 nphases=3  Units=km
~ Rmatrix=[0.769831  |0.153707  0.763681  |0.148745  0.145871  0.754306  ]
~ Xmatrix=[0.790518  |0.392291  0.797758  |0.345852  0.401548  0.808895  ]
~ Cmatrix=[8.6251  |-2.36964  9.03752  |-1.27437  -2.47055  8.40642  ]

New Linecode.cab107 nphases=3  Units=km
~ Rmatrix=[0.445761  |0.13693  0.440192  |0.132432  0.129842  0.431728  ]
~ Xmatrix=[0.711542  |0.341176  0.721704  |0.297091  0.354162  0.737314  ]
~ Cmatrix=[9.18344  |-2.62378  9.67301  |-1.3715  -2.73764  8.93465  ]

New Linecode.cab108 nphases=3  Units=km
~ Rmatrix=[0.334761  |0.13693  0.329192  |0.132432  0.129842  0.320728  ]
~ Xmatrix=[0.675286  |0.341176  0.685448  |0.297091  0.354162  0.701058  ]
~ Cmatrix=[9.81304  |-2.93964  10.4093  |-1.48951  -3.06447  9.53761  ]

New Linecode.cab202 nphases=3  Units=km
~ Rmatrix=[1.68554  |0.14956  1.68922  |0.145077  0.146848  1.6803  ]
~ Xmatrix=[0.873236  |0.387657  0.870354  |0.362296  0.447238  0.877359  ]
~ Cmatrix=[7.49346  |-1.35115  8.14748  |-0.904352  -2.33495  7.85418  ]

New Linecode.cab203 nphases=3  Units=km
~ Rmatrix=[1.11394  |0.14956  1.11762  |0.145077  0.146848  1.1087  ]
~ Xmatrix=[0.855674  |0.387657  0.852791  |0.362296  0.447238  0.859796  ]
~ Cmatrix=[7.74891  |-1.43483  8.46969  |-0.951052  -2.49474  8.15092  ]

New Linecode.cab204 nphases=3  Units=km
~ Rmatrix=[0.764305  |0.153311  0.768358  |0.148382  0.150326  0.758548  ]
~ Xmatrix=[0.78692  |0.33538  0.782154  |0.312312  0.396346  0.793728  ]
~ Cmatrix=[8.03109  |-1.51624  8.82691  |-0.993256  -2.66357  8.47568  ]

New Linecode.cab207 nphases=3  Units=km
~ Rmatrix=[0.441335  |0.137159  0.445025  |0.132676  0.134441  0.436104  ]
~ Xmatrix=[0.711321  |0.285149  0.704658  |0.264391  0.34751  0.720832  ]
~ Cmatrix=[8.49071  |-1.65946  9.42163  |-1.06632  -2.95857  9.01484  ]

New Linecode.cab208 nphases=3  Units=km
~ Rmatrix=[0.330335  |0.137159  0.334025  |0.132676  0.134441  0.325104  ]
~ Xmatrix=[0.685173  |0.285149  0.678509  |0.264391  0.34751  0.694683  ]
~ Cmatrix=[8.8836  |-1.79923  9.946  |-1.13739  -3.23834  9.49023  ]

New Linecode.caba06 nphases=3  Units=km
~ Rmatrix=[0.876611  |0.147184  0.880601  |0.145085  0.147056  0.87636  ]
~ Xmatrix=[0.80424  |0.489498  0.799507  |0.518645  0.48965  0.804539  ]
~ Cmatrix=[12.883  |-3.97516  12.0089  |-5.35601  -3.9783  12.8785  ]

New Linecode.caba08 nphases=3  Units=km
~ Rmatrix=[0.36395  |0.131031  0.367555  |0.129137  0.130915  0.363723  ]
~ Xmatrix=[0.694537  |0.441488  0.687901  |0.471637  0.441701  0.694955  ]
~ Cmatrix=[14.41  |-4.52764  13.2713  |-6.24955  -4.53149  14.4046  ]

New Linecode.cab202_3_1 nphases=1  Units=km
~ Rmatrix=[1.69125  ]
~ Xmatrix=[0.868776  ]
~ Cmatrix=[7.13156  ]

New Linecode.cab103_3_1 nphases=1  Units=km
~ Rmatrix=[1.12683  ]
~ Xmatrix=[0.86208  ]
~ Cmatrix=[7.26889  ]

New Linecode.cab102_3_1 nphases=1  Units=km
~ Rmatrix=[1.70253  ]
~ Xmatrix=[0.879679  ]
~ Cmatrix=[7.05568  ]

New Linecode.cab203_3_1 nphases=1  Units=km
~ Rmatrix=[1.11965  ]
~ Xmatrix=[0.851213  ]
~ Cmatrix=[7.3516  ]

New Linecode.caba06_3_1 nphases=1  Units=km
~ Rmatrix=[0.876899  ]
~ Xmatrix=[0.803898  ]
~ Cmatrix=[7.73146  ]
